// "blabla"

FoamFile
{
    version     2.0;
    format      ascii;
    class       dictionary;
    object      dictionary;
}
// * * * * * * * * * * * * * * * * * * * * * * * * * * * * * * * * * * * * * //

//name \$WM_MPLIB;

#comment //ABC

// * * * * * * * * * * * * * * * * * * * * * * * * * * * * * * * * * * * * * //
