/*--------------------------------*- C++ -*----------------------------------*\
| =========                 |                                                 |
| \\      /  F ield         | OpenFOAM: The Open Source CFD Toolbox           |
|  \\    /   O peration     | Version:  dev                                   |
|   \\  /    A nd           | Web:      www.OpenFOAM.org                      |
|    \\/     M anipulation  |                                                 |
\*---------------------------------------------------------------------------*/
FoamFile
{
    version     2.0;
    format      ascii;
    class       volScalarField;
    object      k;
}
// * * * * * * * * * * * * * * * * * * * * * * * * * * * * * * * * * * * * * //

topAir
{
    dimensions      [ 0 2 -2 0 0 0 0 ];

    internalField   uniform 0.1;

    boundaryField
    {
        wall
        {
            type            kqRWallFunction;
            value           $internalField;
        }
        minX
        {
            type            fixedValue;
            value           $internalField;
        }
        maxX
        {
            type            inletOutlet;
            value           $internalField;
            inletValue      $internalField;
        }
    }
}

bottomWater
{
    dimensions      [ 0 2 -2 0 0 0 0 ];

    internalField   uniform 0.1;

    boundaryField
    {
        minX
        {
            type            inletOutlet;
            value           uniform 0.1;
            inletValue      uniform 0.1;
        }
        maxX
        {
            type            zeroGradient;
            value           uniform 0.1;
        }
        wall
        {
            type            kqRWallFunction;
            value           $internalField;
        }
    }
}

// Needed for decomposePar only
"(heater|leftSolid|rightSolid)"
{
    dimensions      [ 0 2 -2 0 0 0 0 ];

    internalField   uniform 0;

    boundaryField
    {
        ".*"
        {
            type    zeroGradient;
        }
    }
}

// ************************************************************************* //
