/*--------------------------------*- C++ -*----------------------------------*\
| =========                 |                                                 |
| \\      /  F ield         | OpenFOAM: The Open Source CFD Toolbox           |
|  \\    /   O peration     | Version:  dev                                   |
|   \\  /    A nd           | Web:      www.OpenFOAM.org                      |
|    \\/     M anipulation  |                                                 |
\*---------------------------------------------------------------------------*/
FoamFile
{
    version     2.0;
    format      ascii;
    class       volScalarField;
    object      p;
}
// * * * * * * * * * * * * * * * * * * * * * * * * * * * * * * * * * * * * * //

topAir
{
    dimensions      [ 1 -1 -2 0 0 0 0 ];

    internalField   uniform 100000;

    boundaryField
    {
        ".*"
        {
            type            calculated;
            value           $internalField;
        }
    }
}

bottomWater
{
    dimensions      [ 1 -1 -2 0 0 0 0 ];

    internalField   uniform 0;

    boundaryField
    {
        ".*"
        {
            type            calculated;
            value           $internalField;
        }
    }
}

heater
{
    dimensions      [1 -1 -2 0 0 0 0];

    internalField   uniform 100000;

    boundaryField
    {
        ".*"
        {
            type            calculated;
            value           $internalField;
        }
    }
}

leftSolid
{
    dimensions      [1 -1 -2 0 0 0 0];

    internalField   uniform 100000;

    boundaryField
    {
        ".*"
        {
            type            calculated;
            value           $internalField;
        }
    }
}

rightSolid
{
    dimensions      [1 -1 -2 0 0 0 0];

    internalField   uniform 100000;

    boundaryField
    {
        ".*"
        {
            type            calculated;
            value           $internalField;
        }
    }
}

// ************************************************************************* //
