/*--------------------------------*- C++ -*----------------------------------*\
| =========                 |                                                 |
| \\      /  F ield         | OpenFOAM: The Open Source CFD Toolbox           |
|  \\    /   O peration     | Version:  dev                                   |
|   \\  /    A nd           | Web:      www.OpenFOAM.org                      |
|    \\/     M anipulation  |                                                 |
\*---------------------------------------------------------------------------*/
FoamFile
{
    version     2.0;
    format      ascii;
    class       volScalarField;
    object      T;
}
// * * * * * * * * * * * * * * * * * * * * * * * * * * * * * * * * * * * * * //

topAir
{
    dimensions      [ 0 0 0 1 0 0 0 ];

    internalField   uniform 300;

    boundaryField
    {
        maxY
        {
            type            zeroGradient;
            value           $internalField;
        }
        minX
        {
            type            fixedValue;
            value           $internalField;
        }
        maxX
        {
            type            inletOutlet;
            value           $internalField;
            inletValue      $internalField;
        }
        minZ
        {
            type            zeroGradient;
            value           $internalField;
        }
        maxZ
        {
            type            zeroGradient;
            value           $internalField;
        }
        "topAir_to_.*"
        {
            type            compressible::turbulentTemperatureCoupledBaffleMixed;
            value           $internalField;
            Tnbr            T;
            kappaMethod     fluidThermo;
        }
    }
}

bottomWater
{
    dimensions      [ 0 0 0 1 0 0 0 ];

    internalField   uniform 300;

    boundaryField
    {
        minX
        {
            type            fixedValue;
            value           $internalField;
        }
        maxX
        {
            type            inletOutlet;
            value           $internalField;
            inletValue      $internalField;
        }
        minY
        {
            type            zeroGradient;
            value           $internalField;
        }
        minZ
        {
            type            zeroGradient;
            value           $internalField;
        }
        maxZ
        {
            type            zeroGradient;
            value           $internalField;
        }
        "bottomWater_to_.*"
        {
            type            compressible::turbulentTemperatureCoupledBaffleMixed;
            value           $internalField;
            Tnbr            T;
            kappaMethod     fluidThermo;
        }
    }
}

heater
{
    dimensions      [ 0 0 0 1 0 0 0 ];

    internalField   uniform 300;

    boundaryField
    {
        minY
        {
            type            fixedValue;
            value           uniform 500;
        }
        minZ
        {
            type            zeroGradient;
            value           $internalField;
        }
        maxZ
        {
            type            zeroGradient;
            value           $internalField;
        }
        "heater_to_.*"
        {
            type            compressible::turbulentTemperatureCoupledBaffleMixed;
            value           $internalField;
            Tnbr            T;
            kappaMethod     solidThermo;
        }
    }
}

leftSolid
{
    dimensions      [ 0 0 0 1 0 0 0 ];

    internalField   uniform 300;

    boundaryField
    {
        minX
        {
            type            zeroGradient;
            value           $internalField;
        }
        minZ
        {
            type            zeroGradient;
            value           $internalField;
        }
        maxZ
        {
            type            zeroGradient;
            value           $internalField;
        }
        leftSolid_to_bottomWater
        {
            type            compressible::turbulentTemperatureCoupledBaffleMixed;
            value           $internalField;
            Tnbr            T;
            kappaMethod     solidThermo;
        }
        leftSolid_to_heater
        {
            type            compressible::turbulentTemperatureCoupledBaffleMixed;
            value           $internalField;
            Tnbr            T;
            kappaMethod     solidThermo;
            thicknessLayers ( 0.001 );
            kappaLayers     ( 0.0005 );
        }
        leftSolid_to_topAir
        {
            type            compressible::turbulentTemperatureCoupledBaffleMixed;
            value           $internalField;
            Tnbr            T;
            kappaMethod     solidThermo;
        }
    }
}

rightSolid
{
    dimensions      [ 0 0 0 1 0 0 0 ];

    internalField   uniform 300;

    boundaryField
    {
        maxX
        {
            type            zeroGradient;
            value           $internalField;
        }
        minZ
        {
            type            zeroGradient;
            value           $internalField;
        }
        maxZ
        {
            type            zeroGradient;
            value           $internalField;
        }
        "rightSolid_to_.*"
        {
            type            compressible::turbulentTemperatureCoupledBaffleMixed;
            value           $internalField;
            Tnbr            T;
            kappaMethod     solidThermo;
        }
    }
}


// ************************************************************************* //
