/*--------------------------------*- C++ -*----------------------------------*\
| =========                 |                                                 |
| \\      /  F ield         | OpenFOAM: The Open Source CFD Toolbox           |
|  \\    /   O peration     | Version:  dev                                   |
|   \\  /    A nd           | Web:      www.OpenFOAM.org                      |
|    \\/     M anipulation  |                                                 |
\*---------------------------------------------------------------------------*/
FoamFile
{
    version     2.0;
    format      ascii;
    class       dictionary;
    location    "system";
    object      controlDict;
}
// * * * * * * * * * * * * * * * * * * * * * * * * * * * * * * * * * * * * * //

DebugSwitches
{
    globalIndexAndTransform 1;
}

application     icoFoam;

startFrom       startTime;

startTime       0;

stopAt          endTime;

endTime         0.01;

deltaT          0.005;

writeControl    timeStep;
writeInterval   1;

purgeWrite      0;

writeFormat     ascii;

writePrecision  16;

writeCompression off;

timeFormat      general;

timePrecision   6;

runTimeModifiable true;

functions
{
    volPointInterpolate
    {
        // Load the library containing the 'coded' functionObject
        functionObjectLibs ("libutilityFunctionObjects.so");
        type coded;
        // Name of on-the-fly generated functionObject
        redirectType vpi;
        codeInclude
        #{
            #include "volPointInterpolation.H"
        #};
        codeWrite
        #{
            const volScalarField& p = mesh().lookupObject<volScalarField>("p");
            volPointInterpolation::New(mesh()).interpolate(p)().write();
        #};
    }
}


// ************************************************************************* //
