/*--------------------------------*- C++ -*----------------------------------*\
| =========                 |                                                 |
| \\      /  F ield         | OpenFOAM: The Open Source CFD Toolbox           |
|  \\    /   O peration     | Version:  dev                                   |
|   \\  /    A nd           | Web:      www.OpenFOAM.org                      |
|    \\/     M anipulation  |                                                 |
\*---------------------------------------------------------------------------*/
FoamFile
{
    version     2.0;
    format      ascii;
    class       dictionary;
    location    "system";
    object      fvSolution;
}
// * * * * * * * * * * * * * * * * * * * * * * * * * * * * * * * * * * * * * //

solvers
{
    T
    {
        //solver          PCG;
        //preconditioner  DIC;

        //solver          smoothSolver;
        solver          GAMG;
        smoother        GaussSeidel;    //ADI;    //GaussSeidel;
        //nSweeps         -2;
        maxIter         1;


        tolerance       1e-14;
        relTol          0;
    }
}

SIMPLE
{
    nNonOrthogonalCorrectors 0; //2;
}


// ************************************************************************* //
