/*--------------------------------*- C++ -*----------------------------------*\
| =========                 |                                                 |
| \\      /  F ield         | OpenFOAM: The Open Source CFD Toolbox           |
|  \\    /   O peration     | Version:  dev                                   |
|   \\  /    A nd           | Web:      www.OpenFOAM.org                      |
|    \\/     M anipulation  |                                                 |
\*---------------------------------------------------------------------------*/
FoamFile
{
    version     2.0;
    format      binary;
    class       polyBoundaryMesh;
    location    "2/polyMesh";
    object      boundary;
}
// * * * * * * * * * * * * * * * * * * * * * * * * * * * * * * * * * * * * * //

69
(
    frontAndBack
    {
        type            patch;
        nFaces          56;
        startFace       21809;
    }
    inlet
    {
        type            patch;
        nFaces          32;
        startFace       21865;
    }
    outlet
    {
        type            patch;
        nFaces          0;
        startFace       21897;
    }
    lowerWall
    {
        type            wall;
        inGroups        1(wall);
        nFaces          371;
        startFace       21897;
    }
    upperWall
    {
        type            patch;
        nFaces          28;
        startFace       22268;
    }
    motorBike_frt-fairing:001%1
    {
        type            wall;
        inGroups        
2
(
motorBikeGroup
wall
)
;
        nFaces          133;
        startFace       22296;
    }
    motorBike_windshield:002%2
    {
        type            wall;
        inGroups        
2
(
motorBikeGroup
wall
)
;
        nFaces          2;
        startFace       22429;
    }
    motorBike_rr-wh-rim:005%5
    {
        type            wall;
        inGroups        
2
(
motorBikeGroup
wall
)
;
        nFaces          7;
        startFace       22431;
    }
    motorBike_rr-wh-rim:010%10
    {
        type            wall;
        inGroups        
2
(
motorBikeGroup
wall
)
;
        nFaces          23;
        startFace       22438;
    }
    motorBike_fr-wh-rim:011%11
    {
        type            wall;
        inGroups        
2
(
motorBikeGroup
wall
)
;
        nFaces          15;
        startFace       22461;
    }
    motorBike_fr-wh-brake-disk:012%12
    {
        type            wall;
        inGroups        
2
(
motorBikeGroup
wall
)
;
        nFaces          0;
        startFace       22476;
    }
    motorBike_frame:016-shadow%13
    {
        type            wall;
        inGroups        
2
(
motorBikeGroup
wall
)
;
        nFaces          0;
        startFace       22476;
    }
    motorBike_rear-susp:014%14
    {
        type            wall;
        inGroups        
2
(
motorBikeGroup
wall
)
;
        nFaces          13;
        startFace       22476;
    }
    motorBike_rear-susp:014-shadow%15
    {
        type            wall;
        inGroups        
2
(
motorBikeGroup
wall
)
;
        nFaces          7;
        startFace       22489;
    }
    motorBike_frame:016%16
    {
        type            wall;
        inGroups        
2
(
motorBikeGroup
wall
)
;
        nFaces          1;
        startFace       22496;
    }
    motorBike_rr-wh-rim:005-shadow%17
    {
        type            wall;
        inGroups        
2
(
motorBikeGroup
wall
)
;
        nFaces          2;
        startFace       22497;
    }
    motorBike_rr-wh-chain-hub:022%22
    {
        type            wall;
        inGroups        
2
(
motorBikeGroup
wall
)
;
        nFaces          0;
        startFace       22499;
    }
    motorBike_rearseat%24
    {
        type            wall;
        inGroups        
2
(
motorBikeGroup
wall
)
;
        nFaces          15;
        startFace       22499;
    }
    motorBike_frt-fairing%25
    {
        type            wall;
        inGroups        
2
(
motorBikeGroup
wall
)
;
        nFaces          22;
        startFace       22514;
    }
    motorBike_windshield%26
    {
        type            wall;
        inGroups        
2
(
motorBikeGroup
wall
)
;
        nFaces          8;
        startFace       22536;
    }
    motorBike_headlights%27
    {
        type            wall;
        inGroups        
2
(
motorBikeGroup
wall
)
;
        nFaces          7;
        startFace       22544;
    }
    motorBike_driversseat%28
    {
        type            wall;
        inGroups        
2
(
motorBikeGroup
wall
)
;
        nFaces          7;
        startFace       22551;
    }
    motorBike_rear-body%29
    {
        type            wall;
        inGroups        
2
(
motorBikeGroup
wall
)
;
        nFaces          72;
        startFace       22558;
    }
    motorBike_fuel-tank%30
    {
        type            wall;
        inGroups        
2
(
motorBikeGroup
wall
)
;
        nFaces          13;
        startFace       22630;
    }
    motorBike_exhaust%31
    {
        type            wall;
        inGroups        
2
(
motorBikeGroup
wall
)
;
        nFaces          103;
        startFace       22643;
    }
    motorBike_rr-wh-rim%32
    {
        type            wall;
        inGroups        
2
(
motorBikeGroup
wall
)
;
        nFaces          41;
        startFace       22746;
    }
    motorBike_fr-mud-guard%33
    {
        type            wall;
        inGroups        
2
(
motorBikeGroup
wall
)
;
        nFaces          13;
        startFace       22787;
    }
    motorBike_fr-wh-rim%34
    {
        type            wall;
        inGroups        
2
(
motorBikeGroup
wall
)
;
        nFaces          8;
        startFace       22800;
    }
    motorBike_fr-wh-brake-disk%35
    {
        type            wall;
        inGroups        
2
(
motorBikeGroup
wall
)
;
        nFaces          13;
        startFace       22808;
    }
    motorBike_fr-brake-caliper%36
    {
        type            wall;
        inGroups        
2
(
motorBikeGroup
wall
)
;
        nFaces          2;
        startFace       22821;
    }
    motorBike_fr-wh-tyre%37
    {
        type            wall;
        inGroups        
2
(
motorBikeGroup
wall
)
;
        nFaces          45;
        startFace       22823;
    }
    motorBike_hbars%38
    {
        type            wall;
        inGroups        
2
(
motorBikeGroup
wall
)
;
        nFaces          18;
        startFace       22868;
    }
    motorBike_fr-forks%39
    {
        type            wall;
        inGroups        
2
(
motorBikeGroup
wall
)
;
        nFaces          42;
        startFace       22886;
    }
    motorBike_chain%40
    {
        type            wall;
        inGroups        
2
(
motorBikeGroup
wall
)
;
        nFaces          0;
        startFace       22928;
    }
    motorBike_rr-wh-tyre%41
    {
        type            wall;
        inGroups        
2
(
motorBikeGroup
wall
)
;
        nFaces          74;
        startFace       22928;
    }
    motorBike_square-dial%42
    {
        type            wall;
        inGroups        
2
(
motorBikeGroup
wall
)
;
        nFaces          0;
        startFace       23002;
    }
    motorBike_round-dial%43
    {
        type            wall;
        inGroups        
2
(
motorBikeGroup
wall
)
;
        nFaces          1;
        startFace       23002;
    }
    motorBike_dial-holder%44
    {
        type            wall;
        inGroups        
2
(
motorBikeGroup
wall
)
;
        nFaces          3;
        startFace       23003;
    }
    motorBike_rear-susp%45
    {
        type            wall;
        inGroups        
2
(
motorBikeGroup
wall
)
;
        nFaces          41;
        startFace       23006;
    }
    motorBike_rear-brake-lights%46
    {
        type            wall;
        inGroups        
2
(
motorBikeGroup
wall
)
;
        nFaces          2;
        startFace       23047;
    }
    motorBike_rear-light-bracket%47
    {
        type            wall;
        inGroups        
2
(
motorBikeGroup
wall
)
;
        nFaces          4;
        startFace       23049;
    }
    motorBike_frame%48
    {
        type            wall;
        inGroups        
2
(
motorBikeGroup
wall
)
;
        nFaces          22;
        startFace       23053;
    }
    motorBike_rear-mud-guard%49
    {
        type            wall;
        inGroups        
2
(
motorBikeGroup
wall
)
;
        nFaces          19;
        startFace       23075;
    }
    motorBike_rear-susp-spring-damp%50
    {
        type            wall;
        inGroups        
2
(
motorBikeGroup
wall
)
;
        nFaces          0;
        startFace       23094;
    }
    motorBike_fairing-inner-plate%51
    {
        type            wall;
        inGroups        
2
(
motorBikeGroup
wall
)
;
        nFaces          14;
        startFace       23094;
    }
    motorBike_clutch-housing%52
    {
        type            wall;
        inGroups        
2
(
motorBikeGroup
wall
)
;
        nFaces          7;
        startFace       23108;
    }
    motorBike_radiator%53
    {
        type            wall;
        inGroups        
2
(
motorBikeGroup
wall
)
;
        nFaces          14;
        startFace       23115;
    }
    motorBike_engine%56
    {
        type            wall;
        inGroups        
2
(
motorBikeGroup
wall
)
;
        nFaces          26;
        startFace       23129;
    }
    motorBike_rear-shock-link%57
    {
        type            wall;
        inGroups        
2
(
motorBikeGroup
wall
)
;
        nFaces          2;
        startFace       23155;
    }
    motorBike_rear-brake-fluid-pot-bracket%58
    {
        type            wall;
        inGroups        
2
(
motorBikeGroup
wall
)
;
        nFaces          5;
        startFace       23157;
    }
    motorBike_rear-brake-fluid-pot%59
    {
        type            wall;
        inGroups        
2
(
motorBikeGroup
wall
)
;
        nFaces          2;
        startFace       23162;
    }
    motorBike_footpeg%60
    {
        type            wall;
        inGroups        
2
(
motorBikeGroup
wall
)
;
        nFaces          2;
        startFace       23164;
    }
    motorBike_rr-wh-chain-hub%61
    {
        type            wall;
        inGroups        
2
(
motorBikeGroup
wall
)
;
        nFaces          0;
        startFace       23166;
    }
    motorBike_rear-brake-caliper%62
    {
        type            wall;
        inGroups        
2
(
motorBikeGroup
wall
)
;
        nFaces          5;
        startFace       23166;
    }
    motorBike_rider-helmet%65
    {
        type            wall;
        inGroups        
2
(
motorBikeGroup
wall
)
;
        nFaces          25;
        startFace       23171;
    }
    motorBike_rider-visor%66
    {
        type            wall;
        inGroups        
2
(
motorBikeGroup
wall
)
;
        nFaces          9;
        startFace       23196;
    }
    motorBike_rider-boots%67
    {
        type            wall;
        inGroups        
2
(
motorBikeGroup
wall
)
;
        nFaces          24;
        startFace       23205;
    }
    motorBike_rider-gloves%68
    {
        type            wall;
        inGroups        
2
(
motorBikeGroup
wall
)
;
        nFaces          10;
        startFace       23229;
    }
    motorBike_rider-body%69
    {
        type            wall;
        inGroups        
2
(
motorBikeGroup
wall
)
;
        nFaces          154;
        startFace       23239;
    }
    motorBike_frame:0%70
    {
        type            wall;
        inGroups        
2
(
motorBikeGroup
wall
)
;
        nFaces          0;
        startFace       23393;
    }
    motorBike_frt-fairing:001-shadow%74
    {
        type            wall;
        inGroups        
2
(
motorBikeGroup
wall
)
;
        nFaces          56;
        startFace       23393;
    }
    motorBike_windshield-shadow%75
    {
        type            wall;
        inGroups        
2
(
motorBikeGroup
wall
)
;
        nFaces          7;
        startFace       23449;
    }
    motorBike_fr-mud-guard-shadow%81
    {
        type            wall;
        inGroups        
2
(
motorBikeGroup
wall
)
;
        nFaces          8;
        startFace       23456;
    }
    motorBike_fr-wh-brake-disk-shadow%83
    {
        type            wall;
        inGroups        
2
(
motorBikeGroup
wall
)
;
        nFaces          4;
        startFace       23464;
    }
    motorBike_rear-mud-guard-shadow%84
    {
        type            wall;
        inGroups        
2
(
motorBikeGroup
wall
)
;
        nFaces          8;
        startFace       23468;
    }
    motorBike_radiator-shadow%86
    {
        type            wall;
        inGroups        
2
(
motorBikeGroup
wall
)
;
        nFaces          2;
        startFace       23476;
    }
    motorBike_rr-wh-chain-hub-shadow%89
    {
        type            wall;
        inGroups        
2
(
motorBikeGroup
wall
)
;
        nFaces          0;
        startFace       23478;
    }
    cyc_half0
    {
        type            cyclicAMI;
        inGroups        1(cyclicAMI);
        nFaces          271;
        startFace       23478;
        matchTolerance  0.0001;
        transform       translational;
        neighbourPatch  cyc_half1;
        separationVector (0 0 0);
    }
    cyc_half1
    {
        type            cyclicAMI;
        inGroups        1(cyclicAMI);
        nFaces          905;
        startFace       23749;
        matchTolerance  0.0001;
        transform       translational;
        neighbourPatch  cyc_half0;
        separationVector (0 0 0);
    }
)

// ************************************************************************* //
