/*--------------------------------*- C++ -*----------------------------------*\
| =========                 |                                                 |
| \\      /  F ield         | OpenFOAM: The Open Source CFD Toolbox           |
|  \\    /   O peration     | Version:  dev                                   |
|   \\  /    A nd           | Web:      www.OpenFOAM.org                      |
|    \\/     M anipulation  |                                                 |
\*---------------------------------------------------------------------------*/
FoamFile
{
    version     2.0;
    format      ascii;
    class       dictionary;
    location    "system";
    object      controlDict;
}
// * * * * * * * * * * * * * * * * * * * * * * * * * * * * * * * * * * * * * //

libs    ("libautoDecomposingFileOperation.so");

OptimisationSwitches
{
    //fileHandler autoDecomposing;
    fileHandler autoReconstructing;
}


DebugSwitches
{
    //collated  1;
    //OFstreamCollator 1;
    //masterCollatingOFstream2 1;
    //decomposedBlockData2 1;
    //masterUncollated    1;
    autoDecomposing 1;
    autoReconstructing 1;
//    dlLibraryTable  1;
    //OSspecific  1;

    unallocatedFvPatchScalarField 1;

}

application     icoFoam;

startFrom       startTime;

startTime       0;

stopAt          endTime;

endTime         0.5;

deltaT          0.005;

writeControl    timeStep;
writeInterval   20;

purgeWrite      0;

writeFormat     ascii;

writePrecision  6;

writeCompression off;

timeFormat      general;

timePrecision   6;

runTimeModifiable true;


// ************************************************************************* //
