/*--------------------------------*- C++ -*----------------------------------*\
| =========                 |                                                 |
| \\      /  F ield         | OpenFOAM: The Open Source CFD Toolbox           |
|  \\    /   O peration     | Version:  dev                                   |
|   \\  /    A nd           | Web:      www.OpenFOAM.org                      |
|    \\/     M anipulation  |                                                 |
\*---------------------------------------------------------------------------*/
FoamFile
{
    version     2.0;
    format      ascii;
    class       dictionary;
    note        "mesh decomposition control dictionary";
    object      decomposeParDict;
}
// * * * * * * * * * * * * * * * * * * * * * * * * * * * * * * * * * * * * * //

numberOfSubdomains  2;


method          scotch;
//method          hierarchical;
// method          simple;
// method          metis;
// method          manual;
// method          multiLevel;
// method          structured;  // does 2D decomposition of structured mesh

scotchCoeffs
{
    processorWeights
    (
        100
        1
    );
    //writeGraph  true;
    //strategy "b";
}


// ************************************************************************* //
