/*--------------------------------*- C++ -*----------------------------------*\
| =========                 |                                                 |
| \\      /  F ield         | OpenFOAM: The Open Source CFD Toolbox           |
|  \\    /   O peration     | Version:  v1912                                 |
|   \\  /    A nd           | Website:  www.openfoam.com                      |
|    \\/     M anipulation  |                                                 |
\*---------------------------------------------------------------------------*/
FoamFile
{
    version     2.0;
    format      ascii;
    class       dictionary;
    object      blockMeshDict;
}
// * * * * * * * * * * * * * * * * * * * * * * * * * * * * * * * * * * * * * //

scale   1;

vertices
(
    (0 0 0)
    (1 0 0)
    (1 3 0)
    (0 3 0)
    (0 0 0.1)
    (1 0 0.1)
    (1 3 0.1)
    (0 3 0.1)

    (1 0 0)
    (2 0 0)
    (2 1 0)
    (1 1 0)
    (1 0 0.1)
    (2 0 0.1)
    (2 1 0.1)
    (1 1 0.1)

    (1 1 0)
    (2 1 0)
    (2 3 0)
    (1 3 0)
    (1 1 0.1)
    (2 1 0.1)
    (2 3 0.1)
    (1 3 0.1)
);

blocks
(
    hex (0 1 2 3 4 5 6 7) left (2 6 1) simpleGrading (1 1 1)
    hex (8 9 10 11 12 13 14 15) bottom (2 3 1) simpleGrading (1 1 1)
    hex (16 17 18 19 20 21 22 23) top (2 3 1) simpleGrading (1 1 1)
);

edges
(
);

boundary
(
    walls
    {
        type wall;
        faces
        (
            (3 7 6 2)
            (1 5 4 0)

            (11 15 14 10)
            (9 13 12 8)

            (19 23 22 18)
            (17 21 20 16)
        );
    }
    left
    {
        type wall;
        faces
        (
            (0 4 7 3)
        );
    }
    leftAMI
    {
        type wall;
        faces
        (
            (2 6 5 1)
        );
    }

    bottomAMI
    {
        type wall;
        faces
        (
            (8 12 15 11)
        );
    }
    topAMI
    {
        type wall;
        faces
        (
            (16 20 23 19)
        );
    }

    right
    {
        type wall;
        faces
        (
            (10 14 13 9)
            (18 22 21 17)
        );
    }

    frontAndBack
    {
        type empty;
        faces
        (
            (0 3 2 1)
            (4 5 6 7)

            (8 11 10 9)
            (12 13 14 15)

            (16 19 18 17)
            (20 21 22 23)
        );
    }
);

mergePatchPairs
(
);

// ************************************************************************* //
