/*--------------------------------*- C++ -*----------------------------------*\
| =========                 |                                                 |
| \\      /  F ield         | OpenFOAM: The Open Source CFD Toolbox           |
|  \\    /   O peration     | Version:  v2212                                 |
|   \\  /    A nd           | Website:  www.openfoam.com                      |
|    \\/     M anipulation  |                                                 |
\*---------------------------------------------------------------------------*/
FoamFile
{
    version     2.0;
    format      ascii;
    class       dictionary;
    object      blockMeshDict;
}
// * * * * * * * * * * * * * * * * * * * * * * * * * * * * * * * * * * * * * //

scale   0.1;

vertices
(
    (0 0 0)
    (1 0 0)
    (1 1 0)
    (0 1 0)
    (0 0 0.1)
    (1 0 0.1)
    (1 1 0.1)
    (0 1 0.1)


    (0.5 0.5 0)
    (1.5 0.5 0)
    (1.5 1.5 0)
    (0.5 1.5 0)
    (0.5 0.5 0.1)
    (1.5 0.5 0.1)
    (1.5 1.5 0.1)
    (0.5 1.5 0.1)

);

blocks
(
    hex (0 1 2 3 4 5 6 7) zone0 (3 3 1) simpleGrading (1 1 1)
    hex (8 9 10 11 12 13 14 15) zone1 (3 3 1) simpleGrading (1 1 1)
);

edges
(
);

boundary
(
//    movingWall
//    {
//        type wall;
//        faces
//        (
//            (3 7 6 2)
//        );
//    }
//    fixedWalls
//    {
//        type wall;
//        faces
//        (
//            (0 4 7 3)
//            (2 6 5 1)
//            (1 5 4 0)
//        );
//    }
//    frontAndBack
//    {
//        type empty;
//        faces
//        (
//            (0 3 2 1)
//            (4 5 6 7)
//        );
//    }
);


// ************************************************************************* //
