/*--------------------------------*- C++ -*----------------------------------*\
| =========                 |                                                 |
| \\      /  F ield         | OpenFOAM: The Open Source CFD Toolbox           |
|  \\    /   O peration     | Version:  dev.feature-allToAll                  |
|   \\  /    A nd           | Web:      www.OpenFOAM.org                      |
|    \\/     M anipulation  |                                                 |
\*---------------------------------------------------------------------------*/
FoamFile
{
    version     2.0;
    format      binary;
    class       decomposedBlockData;
    location    "/home/penfold2/mattijs/OpenFOAM/mattijs-extensions/applications/test/mixedCollatedFileOperation/cavity/processors2/constant/polyMesh/boundary";
    object      boundary;
}
// * * * * * * * * * * * * * * * * * * * * * * * * * * * * * * * * * * * * * //


// Processor0

1610
(/*--------------------------------*- C++ -*----------------------------------*\
| =========                 |                                                 |
| \\      /  F ield         | OpenFOAM: The Open Source CFD Toolbox           |
|  \\    /   O peration     | Version:  dev.feature-allToAll                  |
|   \\  /    A nd           | Web:      www.OpenFOAM.org                      |
|    \\/     M anipulation  |                                                 |
\*---------------------------------------------------------------------------*/
FoamFile
{
    version     2.0;
    format      ascii;
    class       polyBoundaryMesh;
    location    "constant/polyMesh";
    object      boundary;
}
// * * * * * * * * * * * * * * * * * * * * * * * * * * * * * * * * * * * * * //

4
(
    movingWall
    {
        type            wall;
        inGroups        1(wall);
        nFaces          10;
        startFace       370;
    }
    fixedWalls
    {
        type            wall;
        inGroups        1(wall);
        nFaces          30;
        startFace       380;
    }
    frontAndBack
    {
        type            empty;
        inGroups        1(empty);
        nFaces          400;
        startFace       410;
    }
    procBoundary0to1
    {
        type            processor;
        inGroups        1(processor);
        nFaces          20;
        startFace       810;
        matchTolerance  0.0001;
        transform       unknown;
        myProcNo        0;
        neighbProcNo    1;
    }
)

// ************************************************************************* //
)

// Processor1

733
(4
(
    movingWall
    {
        type            wall;
        inGroups        1(wall);
        nFaces          10;
        startFace       370;
    }
    fixedWalls
    {
        type            wall;
        inGroups        1(wall);
        nFaces          30;
        startFace       380;
    }
    frontAndBack
    {
        type            empty;
        inGroups        1(empty);
        nFaces          400;
        startFace       410;
    }
    procBoundary1to0
    {
        type            processor;
        inGroups        1(processor);
        nFaces          20;
        startFace       810;
        matchTolerance  0.0001;
        transform       unknown;
        myProcNo        1;
        neighbProcNo    0;
    }
))
