/*--------------------------------*- C++ -*----------------------------------*\
| =========                 |                                                 |
| \\      /  F ield         | OpenFOAM: The Open Source CFD Toolbox           |
|  \\    /   O peration     | Version:  dev                                   |
|   \\  /    A nd           | Web:      www.OpenFOAM.org                      |
|    \\/     M anipulation  |                                                 |
\*---------------------------------------------------------------------------*/
FoamFile
{
    version     2.0;
    format      ascii;
    class       dictionary;
    object      topoSetDict;
}
// * * * * * * * * * * * * * * * * * * * * * * * * * * * * * * * * * * * * * //

actions
(
    {
        name    c0;
        type    cellSet;
        action  new;
        source  boxToCell;
        sourceInfo
        {
            box (0.2 4 -100)(0.9 4.7 100);
        }
    }
    {
        name    c0;
        type    cellSet;
        action  invert;
    }

    {
        name    topFaces;
        type    faceSet;
        action  new;
        source  boxToFace;
        sourceInfo
        {
            box (-100 4.799 -100)(1 4.801 100);
        }
    }
    {
        name    top;
        type    faceZoneSet;
        action  new;
        source  setToFaceZone;
        sourceInfo
        {
            faceSet topFaces;
        }
    }

    {
        name    bottomFaces;
        type    faceSet;
        action  new;
        source  boxToFace;
        sourceInfo
        {
            box (-100 3.899 -100)(1 3.901 100);
        }
    }
    {
        name    bottom;
        type    faceZoneSet;
        action  new;
        source  setToFaceZone;
        sourceInfo
        {
            faceSet bottomFaces;
        }
    }

);

// ************************************************************************* //
