/*--------------------------------*- C++ -*----------------------------------*\
| =========                 |                                                 |
| \\      /  F ield         | OpenFOAM: The Open Source CFD Toolbox           |
|  \\    /   O peration     | Version:  dev                                   |
|   \\  /    A nd           | Web:      www.OpenFOAM.org                      |
|    \\/     M anipulation  |                                                 |
\*---------------------------------------------------------------------------*/
FoamFile
{
    version     2.0;
    format      ascii;
    class       dictionary;
    object      topoSetDict;
}
// * * * * * * * * * * * * * * * * * * * * * * * * * * * * * * * * * * * * * //

actions
(
    {
        name    c0;
        type    cellSet;
        action  new;
        source  boxToCell;
        sourceInfo
        {
            box (0.2 3 -100)(0.9 3.7 100);
        }
    }
    {
        name    c0;
        type    cellSet;
        action  invert;
    }

    // top
    {
        name    topFaces;
        type    faceSet;
        action  new;
        source  boxToFace;
        sourceInfo
        {
            box (-100 4.999 -100)(1 5.001 100);
        }
    }
    {
        name    top;
        type    faceZoneSet;
        action  new;
        source  setToFaceZone;
        sourceInfo
        {
            faceSet topFaces;
        }
    }

    // bottom
    {
        name    bottomFaces;
        type    faceSet;
        action  new;
        source  boxToFace;
        sourceInfo
        {
            box (-100 -100 -100)(1 1e-5 100);
        }
    }
    {
        name    bottom;
        type    faceZoneSet;
        action  new;
        source  setToFaceZone;
        sourceInfo
        {
            faceSet bottomFaces;
        }
    }

    // leftTop
    {
        name    leftTopCells;
        type    cellSet;
        action  new;
        source  boxToCell;
        sourceInfo
        {
            box (-100 4 -100)(1 100 100);
        }
    }
    {
        name    leftTop;
        type    cellZoneSet;
        action  new;
        source  setToCellZone;
        sourceInfo
        {
            set leftTopCells;
        }
    }

    // leftMiddle
    {
        name    leftMiddleCells;
        type    cellSet;
        action  new;
        source  boxToCell;
        sourceInfo
        {
            box (-100 2.7 -100)(1 4 100);
        }
    }
    {
        name    leftMiddle;
        type    cellZoneSet;
        action  new;
        source  setToCellZone;
        sourceInfo
        {
            set leftMiddleCells;
        }
    }

    // leftBottom
    {
        name    leftBottomCells;
        type    cellSet;
        action  new;
        source  boxToCell;
        sourceInfo
        {
            box (-100 -100 -100)(1 2.7 100);
        }
    }
    {
        name    leftBottom;
        type    cellZoneSet;
        action  new;
        source  setToCellZone;
        sourceInfo
        {
            set leftBottomCells;
        }
    }


    // Faces inbetween leftTop-leftMiddle
    {
        name    leftTopMiddleFaces;
        type    faceSet;
        action  new;
        source  cellToFace;
        sourceInfo
        {
            set leftTopCells;
            option all;
        }
    }
    {
        name    leftTopMiddleFaces;
        type    faceSet;
        action  subset;
        source  cellToFace;
        sourceInfo
        {
            set leftMiddleCells;
            option all;
        }
    }
    {
        name    leftTopMiddle;
        type    faceZoneSet;
        action  new;
        source  setToFaceZone;
        sourceInfo
        {
            faceSet leftTopMiddleFaces;
        }
    }

    // Faces inbetween leftMiddle-leftBottom
    {
        name    leftMiddleBottomFaces;
        type    faceSet;
        action  new;
        source  cellToFace;
        sourceInfo
        {
            set leftMiddleCells;
            option all;
        }
    }
    {
        name    leftMiddleBottomFaces;
        type    faceSet;
        action  subset;
        source  cellToFace;
        sourceInfo
        {
            set leftBottomCells;
            option all;
        }
    }
    {
        name    leftMiddleBottom;
        type    faceZoneSet;
        action  new;
        source  setToFaceZone;
        sourceInfo
        {
            faceSet leftMiddleBottomFaces;
        }
    }

    // right
    {
        name    rightCells;
        type    cellSet;
        action  new;
        source  boxToCell;
        sourceInfo
        {
            box (1 -100 -100)(100 100 100);
        }
    }
    {
        name    right;
        type    cellZoneSet;
        action  new;
        source  setToCellZone;
        sourceInfo
        {
            set rightCells;
        }
    }

);

// ************************************************************************* //
