/*--------------------------------*- C++ -*----------------------------------*\
| =========                 |                                                 |
| \\      /  F ield         | OpenFOAM: The Open Source CFD Toolbox           |
|  \\    /   O peration     | Version:  3.0.x                                 |
|   \\  /    A nd           | Web:      www.OpenFOAM.org                      |
|    \\/     M anipulation  |                                                 |
\*---------------------------------------------------------------------------*/
FoamFile
{
    version     2.0;
    format      ascii;
    class       dictionary;
    object      blockMeshDict;
}
// * * * * * * * * * * * * * * * * * * * * * * * * * * * * * * * * * * * * * //

convertToMeters 1;

vertices
(
    (-501  001  -351)
    (1500  001  -351)
    (1500  500  -351)
    (-501  500  -351)
    (-501  001   400)
    (1500  001   400)
    (1500  500   400)
    (-501  500   400)


    // Back of ship
    //(4000 -500  -100)
    //(6000 -500  -100)
    //(6000  500  -100)
    //(4000  500  -100)
    //(4000 -500   400)
    //(6000 -500   400)
    //(6000  500   400)
    //(4000  500   400)
);

blocks
(
    hex (0 1 2 3 4 5 6 7) (80 20 30) simpleGrading (1 1 1)
);

edges
(
);

boundary
(
    movingWall
    {
        type wall;
        faces
        (
            (3 7 6 2)
        );
    }
    fixedWalls
    {
        type wall;
        faces
        (
            (0 4 7 3)
            (2 6 5 1)
            (1 5 4 0)
        );
    }
    frontAndBack
    {
        type empty;
        faces
        (
            (0 3 2 1)
            (4 5 6 7)
        );
    }
);

mergePatchPairs
(
);

// ************************************************************************* //
