/*--------------------------------*- C++ -*----------------------------------*\
| =========                 |                                                 |
| \\      /  F ield         | OpenFOAM: The Open Source CFD Toolbox           |
|  \\    /   O peration     | Version:  dev                                   |
|   \\  /    A nd           | Web:      www.OpenFOAM.org                      |
|    \\/     M anipulation  |                                                 |
\*---------------------------------------------------------------------------*/
FoamFile
{
    version     2.0;
    format      ascii;
    class       volScalarField;
    location    "0";
    object      p.orig;
}
// * * * * * * * * * * * * * * * * * * * * * * * * * * * * * * * * * * * * * //

dimensions      [0 2 -2 0 0 0 0];

internalField   uniform 0;

boundaryField
{
    left1
    {
        type            fixedFluxPressure;
    }
    right1
    {
        type            cyclicAMI;
        value           uniform 0;
    }
    walls1
    {
        type            fixedFluxPressure;
    }
    left2
    {
        type            cyclicAMI;
        value           uniform 0;
    }
    right2
    {
        type            fixedFluxPressure;
    }
    walls2
    {
        type            fixedFluxPressure;
    }
    lift
    {
        type            fixedFluxPressure;
    }
    frontAndBack
    {
        type            empty;
    }
}


// ************************************************************************* //
