/*--------------------------------*- C++ -*----------------------------------*\
| =========                 |                                                 |
| \\      /  F ield         | OpenFOAM: The Open Source CFD Toolbox           |
|  \\    /   O peration     | Version:  dev                                   |
|   \\  /    A nd           | Web:      www.OpenFOAM.org                      |
|    \\/     M anipulation  |                                                 |
\*---------------------------------------------------------------------------*/
FoamFile
{
    version     2.0;
    format      ascii;
    class       dictionary;
    object      blockMeshDict;
}
// * * * * * * * * * * * * * * * * * * * * * * * * * * * * * * * * * * * * * //

geometry
{
    cylinder
    {
        type searchableCylinder;
        point1 (0 -2 0);
        point2 (0 2 0);
        radius 0.7;
    }
    cylinder2
    {
        type searchableCylinder;
        point1 (-10 0.4 0);
        point2 (10 0.4 0);
        radius 0.5;
    }
}

vertices
(
    // Vertical cylinder
    project (-1 -1 -1) (cylinder)
    project ( 1 -1 -1) (cylinder)
    project ( 1  1 -1) (cylinder)
    project (-1  1 -1) (cylinder)
    project (-1 -1  1) (cylinder)
    project ( 1 -1  1) (cylinder)
    project ( 1  1  1) (cylinder)
    project (-1  1  1) (cylinder)


    // Horizontal cylinder
    project (-3   0 -0.5) (cylinder2)
    project (-0.6 0 -0.5) (cylinder cylinder2)
    project (-0.6 1 -0.5) (cylinder cylinder2)
    project (-3   1 -0.5) (cylinder2)
    project (-3   0  0.5) (cylinder2)
    project (-0.6 0  0.5) (cylinder cylinder2)
    project (-0.6 1  0.5) (cylinder cylinder2)
    project (-3   1  0.5) (cylinder2)
);

blocks
(
    hex (0 1 2 3 4 5 6 7) (4 4 4) simpleGrading (1 1 1)
    hex (8 9 10 11 12 13 14 15) (4 4 4) simpleGrading (1 1 1)
);

edges
(
    project 0 1 (cylinder)
    project 1 2 (cylinder)
    project 2 3 (cylinder)
    project 3 0 (cylinder)

    project 0 4 (cylinder)
    project 1 5 (cylinder)
    project 2 6 (cylinder)
    project 3 7 (cylinder)

    project 4 5 (cylinder)
    project 5 6 (cylinder)
    project 6 7 (cylinder)
    project 7 4 (cylinder)


    project 9 10 (cylinder cylinder2)
    project 10 14 (cylinder cylinder2)
    project 14 13 (cylinder cylinder2)
    project 9 13 (cylinder cylinder2)

    project 10 11 (cylinder2)
    project 15 14 (cylinder2)
    project 8 9 (cylinder2)
    project 12 13 (cylinder2)

    project 8 12 (cylinder2)
    project 12 15 (cylinder2)
    project 15 11 (cylinder2)
    project 11 8 (cylinder2)
);

faces
(
    project (3 7 6 2) cylinder
    project (0 1 5 4) cylinder

    // Connecting face
    project (9 10 14 13) cylinder

    project ( 8  9 13 12) cylinder2
    project (12 13 14 15) cylinder2
    project (14 10 11 15) cylinder2
    project (10  9  8 11) cylinder2
);

boundary
(
    walls
    {
        type wall;
        faces
        (
            (0 4 7 3)
            (2 6 5 1)
            (1 5 4 0)
            (3 7 6 2)
            (0 3 2 1)
            (4 5 6 7)
        );
    }
);

// ************************************************************************* //
