/*--------------------------------*- C++ -*----------------------------------*\
| =========                 |                                                 |
| \\      /  F ield         | OpenFOAM: The Open Source CFD Toolbox           |
|  \\    /   O peration     | Version:  dev                                   |
|   \\  /    A nd           | Web:      www.OpenFOAM.org                      |
|    \\/     M anipulation  |                                                 |
\*---------------------------------------------------------------------------*/
FoamFile
{
    version     2.0;
    format      ascii;
    class       dictionary;
    object      topoSetDict;
}
// * * * * * * * * * * * * * * * * * * * * * * * * * * * * * * * * * * * * * //

actions
(
{
    name    f0;
    type    faceSet;
    action  clear;
}
{
    name    f0;
    type    faceSet;
    action  invert;
}
//     {
//         name    f0;
//         type    faceSet;
//         action  new;
//         source  boxToFace;
//         sourceInfo
//         {
//             box  (0.033 0.03 0.03) (0.034 0.07 0.07);
//         }
//     }
);

// ************************************************************************* //
