/*--------------------------------*- C++ -*----------------------------------*\
| =========                 |                                                 |
| \\      /  F ield         | OpenFOAM: The Open Source CFD Toolbox           |
|  \\    /   O peration     | Version:  dev                                   |
|   \\  /    A nd           | Web:      www.OpenFOAM.org                      |
|    \\/     M anipulation  |                                                 |
\*---------------------------------------------------------------------------*/
FoamFile
{
    version     2.0;
    format      ascii;
    class       dictionary;
    object      topoSetDict;
}
// * * * * * * * * * * * * * * * * * * * * * * * * * * * * * * * * * * * * * //


actions
(
    // cellZone from parts
    {
        name    c0;
        type    cellZoneSet;
        action  new;
        source  boxToCell;
        sourceInfo
        {
            box   (0.04 0 0)(0.06 100 100);
        }
    }


    // faceZone from parts
    {
        name    f0Set;
        type    faceSet;
        action  new;
        source  boxToFace;
        sourceInfo
        {
            box   (0 0 0)(0.05 100 100);
        }
    }
    {
        name    f0;
        type    faceZoneSet;
        action  new;
        source  setToFaceZone;
        sourceInfo
        {
            faceSet f0Set;
        }
    }

);

// ************************************************************************* //
