/*--------------------------------*- C++ -*----------------------------------*\
| =========                 |                                                 |
| \\      /  F ield         | OpenFOAM: The Open Source CFD Toolbox           |
|  \\    /   O peration     | Version:  v2206                                 |
|   \\  /    A nd           | Website:  www.openfoam.com                      |
|    \\/     M anipulation  |                                                 |
\*---------------------------------------------------------------------------*/
FoamFile
{
    version     2.0;
    format      ascii;
    class       dictionary;
    location    "system";
    object      fvSolution;
}
// * * * * * * * * * * * * * * * * * * * * * * * * * * * * * * * * * * * * * //

solvers
{
    T
    {
        //solver          PCG;
        //preconditioner  DIC;

        solver          GAMG;
        smoother        GaussSeidel;

        //processorAgglomerator   masterCoarsest2;
        processorAgglomerator   masterCoarsest2;
        nCellsInCoarsestLevel   1;

        // Multiple masters : max 5 cores per master
        //nProcessorsPerMaster    10;


        tolerance       1e-06;
        relTol          0;
    }
}

SIMPLE
{
    nNonOrthogonalCorrectors 2;
}


// ************************************************************************* //
