/*--------------------------------*- C++ -*----------------------------------*\
  =========                 |
  \\      /  F ield         | OpenFOAM: The Open Source CFD Toolbox
   \\    /   O peration     | Website:  https://openfoam.org
    \\  /    A nd           | Version:  dev
     \\/     M anipulation  |
\*---------------------------------------------------------------------------*/
FoamFile
{
    version     2.0;
    format      ascii;
    class       dictionary;
    location    "system";
    object      fvSchemes;
}
// * * * * * * * * * * * * * * * * * * * * * * * * * * * * * * * * * * * * * //

ddtSchemes
{
    default         steadyState;
}

gradSchemes
{
    default         Gauss linear;
}

divSchemes
{
    default         none;

    div(phi,U)      bounded Gauss upwind;
    div(phi,T)      bounded Gauss upwind;
    div(phi,k)      bounded Gauss upwind;
    div(phi,epsilon) bounded Gauss upwind;
    div(phi,R)      bounded Gauss upwind;
    div(R)          Gauss linear;
    div((nuEff*dev2(T(grad(U))))) Gauss linear;
}

laplacianSchemes
{
    default none;
    laplacian(nuEff,U)      Gauss linear corrected;
    laplacian(alphaEff,T)   Gauss linear corrected;
    laplacian(DepsilonEff,epsilon)  Gauss linear corrected;
    laplacian(DkEff,k)      Gauss linear corrected;

    laplacian(rAUf,p_rgh)   relaxedNonOrthoGauss linear corrected;
    //default         Gauss linear limited corrected 0.33;
    //default         relaxedNonOrthoGauss linear corrected;
}

interpolationSchemes
{
    default         linear;
}

snGradSchemes
{
//    default         limited corrected 0.33;
    default         corrected;
}


// ************************************************************************* //
