/*--------------------------------*- C++ -*----------------------------------*\
  =========                 |
  \\      /  F ield         | OpenFOAM: The Open Source CFD Toolbox
   \\    /   O peration     | Website:  https://openfoam.org
    \\  /    A nd           | Version:  dev
     \\/     M anipulation  |
\*---------------------------------------------------------------------------*/
FoamFile
{
    version     2.0;
    format      ascii;
    class       dictionary;
    location    "system";
    object      fvSchemes;
}
// * * * * * * * * * * * * * * * * * * * * * * * * * * * * * * * * * * * * * //

ddtSchemes
{
    default         steadyState;
}

gradSchemes
{
    default         Gauss linear;
}

divSchemes
{
    default         none;

    div(phi,U)      bounded Gauss upwind;
    div(phi,e)      bounded Gauss upwind;

    div(phi,k)      bounded Gauss upwind;
    div(phi,epsilon) bounded Gauss upwind;

    div(phi,Ekp)    bounded Gauss linear;
    div(((rho*nuEff)*dev2(T(grad(U))))) Gauss linear;
}

laplacianSchemes
{
    default none;
    laplacian((rho*nuEff),U)        Gauss linear corrected;
    laplacian(alphaEff,e)           Gauss linear corrected;
    laplacian((rho*DepsilonEff),epsilon)    Gauss linear corrected;
    laplacian((rho*DkEff),k)        Gauss linear corrected;

    laplacian(rhorAUf,p_rgh)        relaxedNonOrthoGauss linear corrected;
}

interpolationSchemes
{
    default         linear;
}

snGradSchemes
{
//    default         limited corrected 0.33;
    default         corrected;
}


// ************************************************************************* //
