/*--------------------------------*- C++ -*----------------------------------*\
  =========                 |
  \\      /  F ield         | OpenFOAM: The Open Source CFD Toolbox
   \\    /   O peration     | Website:  https://openfoam.org
    \\  /    A nd           | Version:  dev
     \\/     M anipulation  |
\*---------------------------------------------------------------------------*/
FoamFile
{
    version     2.0;
    format      ascii;
    class       dictionary;
    object      blockMeshDict;
}
// * * * * * * * * * * * * * * * * * * * * * * * * * * * * * * * * * * * * * //

convertToMeters 0.1;

vertices
(
    (0 0 0)
    (1 0 0)
    (1 1 0)
    (0 1 0)
    (0 0 0.1)
    (1 0 0.1)
    (1 1 0.1)
    (0 1 0.1)

    (1 0 0)
    (2 0 0)
    (2 1 0)
    (1 1 0)
    (1 0 0.1)
    (2 0 0.1)
    (2 1 0.1)
    (1 1 0.1)
);

blocks
(
    hex (0 1 2 3 4 5 6 7) (2 2 1) simpleGrading (1 1 1)
    hex (8 9 10 11 12 13 14 15) (2 2 1) simpleGrading (1 1 1)
);

edges
(
);

boundary
(
    movingWall
    {
        type wall;
        faces
        (
            (3 7 6 2)

            (11 15 14 10)
        );
    }
    fixedWalls
    {
        type wall;
        faces
        (
            (0 4 7 3)
            (1 5 4 0)

            (10 14 13 9)
            (9 13 12 8)
        );
    }
    matchPatch
    {
        type wall;
        faces
        (
            (2 6 5 1)

            (8 12 15 11)
        );
    }
    frontAndBack
    {
        type empty;
        faces
        (
            (0 3 2 1)
            (4 5 6 7)

            (8 11 10 9)
            (12 13 14 15)
        );
    }
);

// ************************************************************************* //
