/*--------------------------------*- C++ -*----------------------------------*\
| =========                 |                                                 |
| \\      /  F ield         | OpenFOAM: The Open Source CFD Toolbox           |
|  \\    /   O peration     | Version:  dev                                   |
|   \\  /    A nd           | Web:      www.OpenFOAM.org                      |
|    \\/     M anipulation  |                                                 |
\*---------------------------------------------------------------------------*/
FoamFile
{
    version     2.0;
    format      ascii;
    class       dictionary;
    object      snappyHexMeshDict;
}
// * * * * * * * * * * * * * * * * * * * * * * * * * * * * * * * * * * * * * //

geometry
{
    cylinder.vtk
    {
        type triSurfaceMesh;
    }
//    cylinder.vtk
//    {
//        type searchableCylinder;
//        point1 (0.3 1.3 -1);
//        point2 (0.3 1.3 1);
//        radius 0.5;
//    }
};


// ************************************************************************* //
