/*--------------------------------*- C++ -*----------------------------------*\
| =========                 |                                                 |
| \\      /  F ield         | OpenFOAM: The Open Source CFD Toolbox           |
|  \\    /   O peration     | Version:  dev                                   |
|   \\  /    A nd           | Web:      www.OpenFOAM.org                      |
|    \\/     M anipulation  |                                                 |
\*---------------------------------------------------------------------------*/
FoamFile
{
    version     2.0;
    format      ascii;
    class       dictionary;
    object      snappyHexMeshDict;
}
// * * * * * * * * * * * * * * * * * * * * * * * * * * * * * * * * * * * * * //

geometry
{
    sphere1.vtk
    {
        type triSurfaceMesh;
    }
//    sphere1
//    {
//        type searchableSphere;
//        centre  (0.7 0.5 0.5);
//        radius  0.7;
//    }
    sphere2.vtk
    {
        type triSurfaceMesh;
    }
    minX.vtk
    {
        type triSurfaceMesh;
    }
    minZ.vtk
    {
        type triSurfaceMesh;
    }
    cylinder.vtk
    {
        type triSurfaceMesh;
    }
    cylinder_moved.vtk
    {
        type triSurfaceMesh;
    }
//    cylinder.vtk
//    {
//        type searchableCylinder;
//        point1 (0.3 1.3 -1);
//        point2 (0.3 1.3 1);
//        radius 0.5;
//    }
};


// ************************************************************************* //
