/*--------------------------------*- C++ -*----------------------------------*\
| =========                 |                                                 |
| \\      /  F ield         | OpenFOAM: The Open Source CFD Toolbox           |
|  \\    /   O peration     | Version:  dev                                   |
|   \\  /    A nd           | Web:      www.OpenFOAM.org                      |
|    \\/     M anipulation  |                                                 |
\*---------------------------------------------------------------------------*/
FoamFile
{
    version     2.0;
    format      ascii;
    class       dictionary;
    object      blockMeshDict;
}
// * * * * * * * * * * * * * * * * * * * * * * * * * * * * * * * * * * * * * //

convertToMeters 1;

vertices
(
    (0 0 0) //0
    (1 0 0) //1
    (1 1 0) //2
    (0 1 0) //3
    (0 0 1) //4
    (1 0 1) //5
    (1 1 1) //6
    (0 1 1) //7


    (1   0 0)   //8=1
    (1.5 0 0)
    (1.5 1 0)   //10
    (1   1 0)   //11=2
    (1   0 1)   //12=5
    (1.5 0 1)
    (1.5 1 1)   //14
    (1   1 1)   //15=6
);

blocks
(
    hex (0 1 2 3 4 5 6 7) (1 1 1) simpleGrading (1 1 1)
    hex (1 9 10 2 5 13 14 6) (1 1 1) simpleGrading (1 1 1)
);

edges
(
);


defaultPatch
{
    name frontAndBack;
    type empty;
}


boundary
(
    left1
    {
        type patch;
        faces
        (
            (0 4 7 3)
        );
    }
    right1
    {
        type            patch;
        faces
        (
//            (2 6 5 1)
        );
    }
    walls1
    {
        type patch;
        faces
        (
            (3 7 6 2)
            (1 5 4 0)
        );
    }

    left2
    {
        type            patch;
        faces
        (
//            (1 5 6 2)
        );
    }
    right2
    {
        type patch;
        faces
        (
            (10 14 13 9)
        );
    }
    walls2
    {
        type patch;
        faces
        (
            (2 6 14 10)
            (9 13 5 1)
        );
    }
);


// ************************************************************************* //
