/*--------------------------------*- C++ -*----------------------------------*\
| =========                 |                                                 |
| \\      /  F ield         | OpenFOAM: The Open Source CFD Toolbox           |
|  \\    /   O peration     | Version:  dev                                   |
|   \\  /    A nd           | Web:      www.OpenFOAM.org                      |
|    \\/     M anipulation  |                                                 |
\*---------------------------------------------------------------------------*/
FoamFile
{
    version     2.0;
    format      binary;
    class       polyBoundaryMesh;
    location    "constant/polyMesh";
    object      boundary;
}
// * * * * * * * * * * * * * * * * * * * * * * * * * * * * * * * * * * * * * //

7
(
    frontAndBack
    {
        type            patch;
        nFaces          80;
        startFace       808;
    }
    inlet
    {
        type            patch;
        nFaces          0;
        startFace       888;
    }
    outlet
    {
        type            patch;
        nFaces          32;
        startFace       888;
    }
    lowerWall
    {
        type            wall;
        inGroups        1(wall);
        nFaces          40;
        startFace       920;
    }
    upperWall
    {
        type            patch;
        nFaces          40;
        startFace       960;
    }
    procBoundary3to1
    {
        type            processor;
        inGroups        1(processor);
        nFaces          80;
        startFace       1000;
        matchTolerance  0.0001;
        transform       unknown;
        myProcNo        3;
        neighbProcNo    1;
    }
    procBoundary3to2
    {
        type            processor;
        inGroups        1(processor);
        nFaces          32;
        startFace       1080;
        matchTolerance  0.0001;
        transform       unknown;
        myProcNo        3;
        neighbProcNo    2;
    }
)

// ************************************************************************* //
