/*--------------------------------*- C++ -*----------------------------------*\
| =========                 |                                                 |
| \\      /  F ield         | OpenFOAM: The Open Source CFD Toolbox           |
|  \\    /   O peration     | Version:  dev                                   |
|   \\  /    A nd           | Web:      www.OpenFOAM.org                      |
|    \\/     M anipulation  |                                                 |
\*---------------------------------------------------------------------------*/
FoamFile
{
    version     2.0;
    format      ascii;
    class       dictionary;
    object      blockMeshDict;
}
// * * * * * * * * * * * * * * * * * * * * * * * * * * * * * * * * * * * * * //

convertToMeters 0.1;

vertices
(
    (0 0 0)
    (1 0 0)
    (1 1 0)
    (0 1 0)
    (0 0 0.1)
    (1 0 0.1)
    (1 1 0.1)
    (0 1 0.1)

    (1 0 0)
    (2 0 0)
    (2 1 0)
    (1 1 0)
    (1 0 0.1)
    (2 0 0.1)
    (2 1 0.1)
    (1 1 0.1)
);

blocks
(
    hex (0 1 2 3 4 5 6 7) left (20 10 1) simpleGrading (1 1 1)
    hex (8 9 10 11 12 13 14 15) right (20 10 1) simpleGrading (1 1 1)
);

edges
(
);

boundary
(
    top
    {
        type empty;
        faces
        (
            (3 7 6 2)
            (11 15 14 10)
        );
    }
    bottom
    {
        type empty;
        faces
        (
            (1 5 4 0)
            (9 13 12 8)
        );
    }
    left
    {
        type patch;
        faces
        (
            (0 4 7 3)
        );
    }
    right
    {
        type patch;
        faces
        (
            //(2 6 5 1)
            (10 14 13 9)
        );
    }

    left_AMI
    {
        type            cyclicAMI;
        neighbourPatch  right_AMI;
        faces
        (
            (2 6 5 1)
        );
    }
    right_AMI
    {
        type            cyclicAMI;
        neighbourPatch  left_AMI;
        faces
        (
            (8 12 15 11)
        );
    }



    frontAndBack
    {
        type empty;
        faces
        (
            (0 3 2 1)
            (4 5 6 7)

            (8 11 10 9)
            (12 13 14 15)
        );
    }
);

mergePatchPairs
(
);

// ************************************************************************* //
