/*--------------------------------*- C++ -*----------------------------------*\
| =========                 |                                                 |
| \\      /  F ield         | OpenFOAM: The Open Source CFD Toolbox           |
|  \\    /   O peration     | Version:  dev                                   |
|   \\  /    A nd           | Web:      www.OpenFOAM.org                      |
|    \\/     M anipulation  |                                                 |
\*---------------------------------------------------------------------------*/
FoamFile
{
    version     2.0;
    format      ascii;
    class       dictionary;
    location    "system";
    object      fvSolution;
}
// * * * * * * * * * * * * * * * * * * * * * * * * * * * * * * * * * * * * * //

solvers
{
    T
    {
        solver          PCG_debug;
        preconditioner  DIC;    //DIC_debug;
        tolerance       1e-06;
        relTol          0;  //0.05;
        maxIter         2;
    }

//    pFinal
//    {
//        $p;
//        relTol          0;
//    }
//
//    U
//    {
//        solver          smoothSolver;
//        smoother        symGaussSeidel;
//        tolerance       1e-05;
//        relTol          0;
//    }
}

//PISO
//{
//    nCorrectors     2;
//    nNonOrthogonalCorrectors 0;
//    pRefCell        0;
//    pRefValue       0;
//}

SIMPLE
{
    nNonOrthogonalCorrectors 0;
}



// ************************************************************************* //
