/*--------------------------------*- C++ -*----------------------------------*\
| =========                 |                                                 |
| \\      /  F ield         | OpenFOAM: The Open Source CFD Toolbox           |
|  \\    /   O peration     | Version:  dev                                   |
|   \\  /    A nd           | Web:      www.OpenFOAM.org                      |
|    \\/     M anipulation  |                                                 |
\*---------------------------------------------------------------------------*/
FoamFile
{
    version     2.0;
    format      ascii;
    class       dictionary;
    location    "system";
    object      fvSolution;
}
// * * * * * * * * * * * * * * * * * * * * * * * * * * * * * * * * * * * * * //

solvers
{
    T
    {
        //solver          PCG;
        //preconditioner  distributedDIC;

        solver          GAMG;
        smoother        GaussSeidel;
        nCellsInCoarsestLevel 1;

        // Explicit specify solver for coarse-level correction to override
        // solution tolerance
        coarsestLevelCorr
        {
            solver          PCG;
            preconditioner  distributedDIC;
        }


        tolerance       1e-06;
        relTol          0;  //0.05;
        //maxIter         10;
    }
}

SIMPLE
{
    nNonOrthogonalCorrectors 0;
}



// ************************************************************************* //
